*SPEF "ieee 1481-1999"
*DESIGN "tiny_user_project"
*DATE "11:11:11 Fri 11 11, 1111"
*VENDOR "OpenRCX"
*PROGRAM "Parallel Extraction"
*VERSION "1.0"
*DESIGN_FLOW "NAME_SCOPE LOCAL" "PIN_CAP NONE"
*DIVIDER /
*DELIMITER :
*BUS_DELIMITER []
*T_UNIT 1 NS
*C_UNIT 1 PF
*R_UNIT 1 OHM
*L_UNIT 1 HENRY

*NAME_MAP
*1 io_in[0]
*2 io_in[10]
*3 io_in[11]
*4 io_in[12]
*5 io_in[13]
*6 io_in[14]
*7 io_in[15]
*8 io_in[16]
*9 io_in[17]
*10 io_in[18]
*11 io_in[19]
*12 io_in[1]
*13 io_in[20]
*14 io_in[21]
*15 io_in[22]
*16 io_in[23]
*17 io_in[24]
*18 io_in[25]
*19 io_in[26]
*20 io_in[27]
*21 io_in[28]
*22 io_in[29]
*23 io_in[2]
*24 io_in[30]
*25 io_in[31]
*26 io_in[32]
*27 io_in[33]
*28 io_in[34]
*29 io_in[35]
*30 io_in[36]
*31 io_in[37]
*32 io_in[3]
*33 io_in[4]
*34 io_in[5]
*35 io_in[6]
*36 io_in[7]
*37 io_in[8]
*38 io_in[9]
*39 net47
*40 net57
*41 net58
*42 net59
*43 net60
*44 net61
*45 net62
*46 net63
*47 net64
*48 net65
*49 net66
*50 net48
*51 net67
*52 net68
*53 net69
*54 net70
*55 net71
*56 net72
*57 net73
*58 net74
*59 net75
*60 net76
*61 net49
*62 net77
*63 net78
*64 net79
*65 net80
*66 net81
*67 net82
*68 net83
*69 net84
*70 net50
*71 net51
*72 net52
*73 net53
*74 net54
*75 net55
*76 net56
*77 net17
*78 net27
*79 net28
*80 net29
*81 net30
*82 net31
*83 net32
*84 net33
*85 net34
*86 net35
*87 net36
*88 net18
*89 io_out[20]
*90 io_out[21]
*91 io_out[22]
*92 io_out[23]
*93 io_out[24]
*94 io_out[25]
*95 io_out[26]
*96 io_out[27]
*97 net37
*98 net38
*99 net19
*100 net39
*101 net40
*102 net41
*103 net42
*104 net43
*105 net44
*106 net45
*107 net46
*108 net20
*109 net21
*110 net22
*111 net23
*112 net24
*113 net25
*114 net26
*117 _00_
*118 _01_
*119 _02_
*120 net1
*121 net10
*122 net11
*123 net12
*124 net13
*125 net14
*126 net15
*127 net16
*128 net2
*129 net3
*130 net4
*131 net5
*132 net6
*133 net7
*134 net8
*135 net9
*136 ANTENNA__03__I
*137 ANTENNA__04__A1
*138 ANTENNA__04__A2
*139 ANTENNA__05__A1
*140 ANTENNA__06__I
*141 ANTENNA__07__I
*142 ANTENNA__08__A2
*143 ANTENNA__10__A2
*144 ANTENNA__11__CLK
*145 ANTENNA__11__D
*146 ANTENNA__12__CLK
*147 ANTENNA__12__D
*148 ANTENNA__81__I
*149 ANTENNA_input1_I
*150 ANTENNA_input2_I
*151 ANTENNA_input3_I
*152 ANTENNA_input4_I
*153 ANTENNA_input5_I
*154 ANTENNA_input6_I
*155 ANTENNA_input7_I
*156 ANTENNA_input8_I
*157 ANTENNA_output11_I
*158 ANTENNA_output12_I
*159 ANTENNA_output14_I
*160 ANTENNA_output15_I
*161 ANTENNA_output9_I
*162 FILLER_0_103
*163 FILLER_0_107
*164 FILLER_0_119
*165 FILLER_0_131
*166 FILLER_0_139
*167 FILLER_0_142
*168 FILLER_0_144
*169 FILLER_0_149
*170 FILLER_0_155
*171 FILLER_0_163
*172 FILLER_0_17
*173 FILLER_0_171
*174 FILLER_0_177
*175 FILLER_0_182
*176 FILLER_0_190
*177 FILLER_0_192
*178 FILLER_0_197
*179 FILLER_0_2
*180 FILLER_0_205
*181 FILLER_0_209
*182 FILLER_0_212
*183 FILLER_0_220
*184 FILLER_0_222
*185 FILLER_0_227
*186 FILLER_0_23
*187 FILLER_0_243
*188 FILLER_0_247
*189 FILLER_0_252
*190 FILLER_0_268
*191 FILLER_0_27
*192 FILLER_0_270
*193 FILLER_0_275
*194 FILLER_0_279
*195 FILLER_0_282
*196 FILLER_0_298
*197 FILLER_0_300
*198 FILLER_0_305
*199 FILLER_0_309
*200 FILLER_0_311
*201 FILLER_0_314
*202 FILLER_0_317
*203 FILLER_0_325
*204 FILLER_0_329
*205 FILLER_0_335
*206 FILLER_0_343
*207 FILLER_0_347
*208 FILLER_0_349
*209 FILLER_0_352
*210 FILLER_0_357
*211 FILLER_0_365
*212 FILLER_0_37
*213 FILLER_0_371
*214 FILLER_0_383
*215 FILLER_0_387
*216 FILLER_0_395
*217 FILLER_0_401
*218 FILLER_0_405
*219 FILLER_0_411
*220 FILLER_0_419
*221 FILLER_0_42
*222 FILLER_0_58
*223 FILLER_0_66
*224 FILLER_0_72
*225 FILLER_0_77
*226 FILLER_0_95
*227 FILLER_10_101
*228 FILLER_10_105
*229 FILLER_10_108
*230 FILLER_10_172
*231 FILLER_10_176
*232 FILLER_10_179
*233 FILLER_10_2
*234 FILLER_10_243
*235 FILLER_10_247
*236 FILLER_10_250
*237 FILLER_10_314
*238 FILLER_10_318
*239 FILLER_10_321
*240 FILLER_10_34
*241 FILLER_10_37
*242 FILLER_10_385
*243 FILLER_10_389
*244 FILLER_10_392
*245 FILLER_10_408
*246 FILLER_10_416
*247 FILLER_11_137
*248 FILLER_11_141
*249 FILLER_11_144
*250 FILLER_11_2
*251 FILLER_11_208
*252 FILLER_11_212
*253 FILLER_11_215
*254 FILLER_11_279
*255 FILLER_11_283
*256 FILLER_11_286
*257 FILLER_11_350
*258 FILLER_11_354
*259 FILLER_11_357
*260 FILLER_11_389
*261 FILLER_11_405
*262 FILLER_11_413
*263 FILLER_11_419
*264 FILLER_11_66
*265 FILLER_11_70
*266 FILLER_11_73
*267 FILLER_12_101
*268 FILLER_12_105
*269 FILLER_12_108
*270 FILLER_12_172
*271 FILLER_12_176
*272 FILLER_12_179
*273 FILLER_12_2
*274 FILLER_12_243
*275 FILLER_12_247
*276 FILLER_12_250
*277 FILLER_12_314
*278 FILLER_12_318
*279 FILLER_12_321
*280 FILLER_12_34
*281 FILLER_12_37
*282 FILLER_12_385
*283 FILLER_12_389
*284 FILLER_12_392
*285 FILLER_12_408
*286 FILLER_12_412
*287 FILLER_12_414
*288 FILLER_12_419
*289 FILLER_13_137
*290 FILLER_13_141
*291 FILLER_13_144
*292 FILLER_13_2
*293 FILLER_13_208
*294 FILLER_13_212
*295 FILLER_13_215
*296 FILLER_13_279
*297 FILLER_13_283
*298 FILLER_13_286
*299 FILLER_13_350
*300 FILLER_13_354
*301 FILLER_13_357
*302 FILLER_13_389
*303 FILLER_13_405
*304 FILLER_13_413
*305 FILLER_13_417
*306 FILLER_13_419
*307 FILLER_13_66
*308 FILLER_13_70
*309 FILLER_13_73
*310 FILLER_14_101
*311 FILLER_14_105
*312 FILLER_14_108
*313 FILLER_14_172
*314 FILLER_14_176
*315 FILLER_14_179
*316 FILLER_14_2
*317 FILLER_14_23
*318 FILLER_14_243
*319 FILLER_14_247
*320 FILLER_14_250
*321 FILLER_14_31
*322 FILLER_14_314
*323 FILLER_14_318
*324 FILLER_14_321
*325 FILLER_14_37
*326 FILLER_14_385
*327 FILLER_14_389
*328 FILLER_14_392
*329 FILLER_14_408
*330 FILLER_14_416
*331 FILLER_14_7
*332 FILLER_15_137
*333 FILLER_15_141
*334 FILLER_15_144
*335 FILLER_15_2
*336 FILLER_15_208
*337 FILLER_15_212
*338 FILLER_15_215
*339 FILLER_15_279
*340 FILLER_15_283
*341 FILLER_15_286
*342 FILLER_15_350
*343 FILLER_15_354
*344 FILLER_15_357
*345 FILLER_15_389
*346 FILLER_15_405
*347 FILLER_15_413
*348 FILLER_15_417
*349 FILLER_15_419
*350 FILLER_15_66
*351 FILLER_15_70
*352 FILLER_15_73
*353 FILLER_16_101
*354 FILLER_16_105
*355 FILLER_16_108
*356 FILLER_16_172
*357 FILLER_16_176
*358 FILLER_16_179
*359 FILLER_16_2
*360 FILLER_16_23
*361 FILLER_16_243
*362 FILLER_16_247
*363 FILLER_16_250
*364 FILLER_16_31
*365 FILLER_16_314
*366 FILLER_16_318
*367 FILLER_16_321
*368 FILLER_16_37
*369 FILLER_16_385
*370 FILLER_16_389
*371 FILLER_16_392
*372 FILLER_16_408
*373 FILLER_16_416
*374 FILLER_16_7
*375 FILLER_17_137
*376 FILLER_17_141
*377 FILLER_17_144
*378 FILLER_17_2
*379 FILLER_17_208
*380 FILLER_17_212
*381 FILLER_17_215
*382 FILLER_17_279
*383 FILLER_17_283
*384 FILLER_17_286
*385 FILLER_17_350
*386 FILLER_17_354
*387 FILLER_17_357
*388 FILLER_17_389
*389 FILLER_17_405
*390 FILLER_17_413
*391 FILLER_17_417
*392 FILLER_17_419
*393 FILLER_17_66
*394 FILLER_17_70
*395 FILLER_17_73
*396 FILLER_18_101
*397 FILLER_18_105
*398 FILLER_18_108
*399 FILLER_18_172
*400 FILLER_18_176
*401 FILLER_18_179
*402 FILLER_18_2
*403 FILLER_18_23
*404 FILLER_18_243
*405 FILLER_18_247
*406 FILLER_18_250
*407 FILLER_18_31
*408 FILLER_18_314
*409 FILLER_18_318
*410 FILLER_18_321
*411 FILLER_18_37
*412 FILLER_18_385
*413 FILLER_18_389
*414 FILLER_18_392
*415 FILLER_18_408
*416 FILLER_18_412
*417 FILLER_18_414
*418 FILLER_18_419
*419 FILLER_18_7
*420 FILLER_19_137
*421 FILLER_19_141
*422 FILLER_19_144
*423 FILLER_19_2
*424 FILLER_19_208
*425 FILLER_19_212
*426 FILLER_19_215
*427 FILLER_19_279
*428 FILLER_19_283
*429 FILLER_19_286
*430 FILLER_19_350
*431 FILLER_19_354
*432 FILLER_19_357
*433 FILLER_19_389
*434 FILLER_19_405
*435 FILLER_19_413
*436 FILLER_19_419
*437 FILLER_19_66
*438 FILLER_19_70
*439 FILLER_19_73
*440 FILLER_1_13
*441 FILLER_1_137
*442 FILLER_1_141
*443 FILLER_1_144
*444 FILLER_1_2
*445 FILLER_1_208
*446 FILLER_1_212
*447 FILLER_1_215
*448 FILLER_1_279
*449 FILLER_1_283
*450 FILLER_1_286
*451 FILLER_1_350
*452 FILLER_1_354
*453 FILLER_1_357
*454 FILLER_1_389
*455 FILLER_1_405
*456 FILLER_1_409
*457 FILLER_1_413
*458 FILLER_1_419
*459 FILLER_1_45
*460 FILLER_1_61
*461 FILLER_1_69
*462 FILLER_1_7
*463 FILLER_1_73
*464 FILLER_20_101
*465 FILLER_20_105
*466 FILLER_20_108
*467 FILLER_20_172
*468 FILLER_20_176
*469 FILLER_20_179
*470 FILLER_20_2
*471 FILLER_20_23
*472 FILLER_20_243
*473 FILLER_20_247
*474 FILLER_20_250
*475 FILLER_20_31
*476 FILLER_20_314
*477 FILLER_20_318
*478 FILLER_20_321
*479 FILLER_20_37
*480 FILLER_20_385
*481 FILLER_20_389
*482 FILLER_20_392
*483 FILLER_20_408
*484 FILLER_20_416
*485 FILLER_20_7
*486 FILLER_21_137
*487 FILLER_21_141
*488 FILLER_21_144
*489 FILLER_21_2
*490 FILLER_21_208
*491 FILLER_21_212
*492 FILLER_21_215
*493 FILLER_21_279
*494 FILLER_21_283
*495 FILLER_21_286
*496 FILLER_21_350
*497 FILLER_21_354
*498 FILLER_21_357
*499 FILLER_21_389
*500 FILLER_21_405
*501 FILLER_21_413
*502 FILLER_21_417
*503 FILLER_21_419
*504 FILLER_21_66
*505 FILLER_21_70
*506 FILLER_21_73
*507 FILLER_22_101
*508 FILLER_22_105
*509 FILLER_22_108
*510 FILLER_22_172
*511 FILLER_22_176
*512 FILLER_22_179
*513 FILLER_22_2
*514 FILLER_22_243
*515 FILLER_22_247
*516 FILLER_22_250
*517 FILLER_22_314
*518 FILLER_22_318
*519 FILLER_22_321
*520 FILLER_22_34
*521 FILLER_22_37
*522 FILLER_22_385
*523 FILLER_22_389
*524 FILLER_22_392
*525 FILLER_22_408
*526 FILLER_22_416
*527 FILLER_23_137
*528 FILLER_23_14
*529 FILLER_23_141
*530 FILLER_23_144
*531 FILLER_23_18
*532 FILLER_23_2
*533 FILLER_23_208
*534 FILLER_23_212
*535 FILLER_23_215
*536 FILLER_23_279
*537 FILLER_23_283
*538 FILLER_23_286
*539 FILLER_23_350
*540 FILLER_23_354
*541 FILLER_23_357
*542 FILLER_23_389
*543 FILLER_23_405
*544 FILLER_23_413
*545 FILLER_23_417
*546 FILLER_23_419
*547 FILLER_23_50
*548 FILLER_23_66
*549 FILLER_23_70
*550 FILLER_23_73
*551 FILLER_23_8
*552 FILLER_24_101
*553 FILLER_24_105
*554 FILLER_24_108
*555 FILLER_24_12
*556 FILLER_24_16
*557 FILLER_24_172
*558 FILLER_24_176
*559 FILLER_24_179
*560 FILLER_24_2
*561 FILLER_24_243
*562 FILLER_24_247
*563 FILLER_24_250
*564 FILLER_24_314
*565 FILLER_24_318
*566 FILLER_24_32
*567 FILLER_24_321
*568 FILLER_24_34
*569 FILLER_24_37
*570 FILLER_24_385
*571 FILLER_24_389
*572 FILLER_24_392
*573 FILLER_24_408
*574 FILLER_24_412
*575 FILLER_24_414
*576 FILLER_24_419
*577 FILLER_24_8
*578 FILLER_25_137
*579 FILLER_25_141
*580 FILLER_25_144
*581 FILLER_25_17
*582 FILLER_25_2
*583 FILLER_25_208
*584 FILLER_25_212
*585 FILLER_25_215
*586 FILLER_25_279
*587 FILLER_25_283
*588 FILLER_25_286
*589 FILLER_25_350
*590 FILLER_25_354
*591 FILLER_25_357
*592 FILLER_25_389
*593 FILLER_25_405
*594 FILLER_25_413
*595 FILLER_25_417
*596 FILLER_25_419
*597 FILLER_25_49
*598 FILLER_25_65
*599 FILLER_25_69
*600 FILLER_25_73
*601 FILLER_26_101
*602 FILLER_26_105
*603 FILLER_26_108
*604 FILLER_26_172
*605 FILLER_26_176
*606 FILLER_26_179
*607 FILLER_26_2
*608 FILLER_26_243
*609 FILLER_26_247
*610 FILLER_26_250
*611 FILLER_26_314
*612 FILLER_26_318
*613 FILLER_26_321
*614 FILLER_26_34
*615 FILLER_26_37
*616 FILLER_26_385
*617 FILLER_26_389
*618 FILLER_26_392
*619 FILLER_26_408
*620 FILLER_26_412
*621 FILLER_26_414
*622 FILLER_26_419
*623 FILLER_27_137
*624 FILLER_27_141
*625 FILLER_27_144
*626 FILLER_27_2
*627 FILLER_27_208
*628 FILLER_27_212
*629 FILLER_27_215
*630 FILLER_27_279
*631 FILLER_27_283
*632 FILLER_27_286
*633 FILLER_27_350
*634 FILLER_27_354
*635 FILLER_27_357
*636 FILLER_27_389
*637 FILLER_27_405
*638 FILLER_27_413
*639 FILLER_27_417
*640 FILLER_27_419
*641 FILLER_27_7
*642 FILLER_27_73
*643 FILLER_28_101
*644 FILLER_28_105
*645 FILLER_28_108
*646 FILLER_28_172
*647 FILLER_28_176
*648 FILLER_28_179
*649 FILLER_28_2
*650 FILLER_28_243
*651 FILLER_28_247
*652 FILLER_28_250
*653 FILLER_28_314
*654 FILLER_28_318
*655 FILLER_28_321
*656 FILLER_28_34
*657 FILLER_28_37
*658 FILLER_28_385
*659 FILLER_28_389
*660 FILLER_28_392
*661 FILLER_28_408
*662 FILLER_28_416
*663 FILLER_29_137
*664 FILLER_29_141
*665 FILLER_29_144
*666 FILLER_29_2
*667 FILLER_29_208
*668 FILLER_29_212
*669 FILLER_29_215
*670 FILLER_29_279
*671 FILLER_29_283
*672 FILLER_29_286
*673 FILLER_29_350
*674 FILLER_29_354
*675 FILLER_29_357
*676 FILLER_29_389
*677 FILLER_29_405
*678 FILLER_29_413
*679 FILLER_29_417
*680 FILLER_29_419
*681 FILLER_29_66
*682 FILLER_29_70
*683 FILLER_29_73
*684 FILLER_2_101
*685 FILLER_2_105
*686 FILLER_2_108
*687 FILLER_2_172
*688 FILLER_2_176
*689 FILLER_2_179
*690 FILLER_2_2
*691 FILLER_2_243
*692 FILLER_2_247
*693 FILLER_2_250
*694 FILLER_2_314
*695 FILLER_2_318
*696 FILLER_2_321
*697 FILLER_2_34
*698 FILLER_2_37
*699 FILLER_2_385
*700 FILLER_2_389
*701 FILLER_2_392
*702 FILLER_2_408
*703 FILLER_2_416
*704 FILLER_30_101
*705 FILLER_30_105
*706 FILLER_30_108
*707 FILLER_30_172
*708 FILLER_30_176
*709 FILLER_30_179
*710 FILLER_30_2
*711 FILLER_30_23
*712 FILLER_30_243
*713 FILLER_30_247
*714 FILLER_30_250
*715 FILLER_30_31
*716 FILLER_30_314
*717 FILLER_30_318
*718 FILLER_30_321
*719 FILLER_30_37
*720 FILLER_30_385
*721 FILLER_30_389
*722 FILLER_30_392
*723 FILLER_30_408
*724 FILLER_30_412
*725 FILLER_30_414
*726 FILLER_30_419
*727 FILLER_30_7
*728 FILLER_31_137
*729 FILLER_31_141
*730 FILLER_31_144
*731 FILLER_31_2
*732 FILLER_31_208
*733 FILLER_31_212
*734 FILLER_31_215
*735 FILLER_31_279
*736 FILLER_31_283
*737 FILLER_31_286
*738 FILLER_31_350
*739 FILLER_31_354
*740 FILLER_31_357
*741 FILLER_31_389
*742 FILLER_31_405
*743 FILLER_31_413
*744 FILLER_31_417
*745 FILLER_31_419
*746 FILLER_31_66
*747 FILLER_31_70
*748 FILLER_31_73
*749 FILLER_32_101
*750 FILLER_32_105
*751 FILLER_32_108
*752 FILLER_32_172
*753 FILLER_32_176
*754 FILLER_32_179
*755 FILLER_32_2
*756 FILLER_32_23
*757 FILLER_32_243
*758 FILLER_32_247
*759 FILLER_32_250
*760 FILLER_32_31
*761 FILLER_32_314
*762 FILLER_32_318
*763 FILLER_32_321
*764 FILLER_32_37
*765 FILLER_32_385
*766 FILLER_32_389
*767 FILLER_32_392
*768 FILLER_32_408
*769 FILLER_32_416
*770 FILLER_32_7
*771 FILLER_33_137
*772 FILLER_33_141
*773 FILLER_33_144
*774 FILLER_33_2
*775 FILLER_33_208
*776 FILLER_33_212
*777 FILLER_33_215
*778 FILLER_33_279
*779 FILLER_33_283
*780 FILLER_33_286
*781 FILLER_33_350
*782 FILLER_33_354
*783 FILLER_33_357
*784 FILLER_33_389
*785 FILLER_33_405
*786 FILLER_33_413
*787 FILLER_33_419
*788 FILLER_33_66
*789 FILLER_33_70
*790 FILLER_33_73
*791 FILLER_34_101
*792 FILLER_34_105
*793 FILLER_34_108
*794 FILLER_34_172
*795 FILLER_34_176
*796 FILLER_34_179
*797 FILLER_34_2
*798 FILLER_34_23
*799 FILLER_34_243
*800 FILLER_34_247
*801 FILLER_34_250
*802 FILLER_34_31
*803 FILLER_34_314
*804 FILLER_34_318
*805 FILLER_34_321
*806 FILLER_34_37
*807 FILLER_34_385
*808 FILLER_34_389
*809 FILLER_34_392
*810 FILLER_34_408
*811 FILLER_34_416
*812 FILLER_34_7
*813 FILLER_35_137
*814 FILLER_35_141
*815 FILLER_35_144
*816 FILLER_35_2
*817 FILLER_35_208
*818 FILLER_35_212
*819 FILLER_35_215
*820 FILLER_35_279
*821 FILLER_35_283
*822 FILLER_35_286
*823 FILLER_35_350
*824 FILLER_35_354
*825 FILLER_35_357
*826 FILLER_35_389
*827 FILLER_35_405
*828 FILLER_35_413
*829 FILLER_35_417
*830 FILLER_35_419
*831 FILLER_35_66
*832 FILLER_35_70
*833 FILLER_35_73
*834 FILLER_36_101
*835 FILLER_36_105
*836 FILLER_36_108
*837 FILLER_36_172
*838 FILLER_36_176
*839 FILLER_36_179
*840 FILLER_36_2
*841 FILLER_36_243
*842 FILLER_36_247
*843 FILLER_36_250
*844 FILLER_36_314
*845 FILLER_36_318
*846 FILLER_36_321
*847 FILLER_36_34
*848 FILLER_36_37
*849 FILLER_36_385
*850 FILLER_36_389
*851 FILLER_36_392
*852 FILLER_36_408
*853 FILLER_36_412
*854 FILLER_36_414
*855 FILLER_36_419
*856 FILLER_37_137
*857 FILLER_37_141
*858 FILLER_37_144
*859 FILLER_37_2
*860 FILLER_37_208
*861 FILLER_37_212
*862 FILLER_37_215
*863 FILLER_37_279
*864 FILLER_37_283
*865 FILLER_37_286
*866 FILLER_37_350
*867 FILLER_37_354
*868 FILLER_37_357
*869 FILLER_37_389
*870 FILLER_37_405
*871 FILLER_37_413
*872 FILLER_37_419
*873 FILLER_37_66
*874 FILLER_37_70
*875 FILLER_37_73
*876 FILLER_38_101
*877 FILLER_38_105
*878 FILLER_38_108
*879 FILLER_38_172
*880 FILLER_38_176
*881 FILLER_38_179
*882 FILLER_38_2
*883 FILLER_38_23
*884 FILLER_38_243
*885 FILLER_38_247
*886 FILLER_38_250
*887 FILLER_38_31
*888 FILLER_38_314
*889 FILLER_38_318
*890 FILLER_38_321
*891 FILLER_38_37
*892 FILLER_38_385
*893 FILLER_38_389
*894 FILLER_38_392
*895 FILLER_38_408
*896 FILLER_38_416
*897 FILLER_38_7
*898 FILLER_39_137
*899 FILLER_39_141
*900 FILLER_39_144
*901 FILLER_39_2
*902 FILLER_39_208
*903 FILLER_39_212
*904 FILLER_39_215
*905 FILLER_39_279
*906 FILLER_39_283
*907 FILLER_39_286
*908 FILLER_39_350
*909 FILLER_39_354
*910 FILLER_39_357
*911 FILLER_39_389
*912 FILLER_39_405
*913 FILLER_39_413
*914 FILLER_39_417
*915 FILLER_39_419
*916 FILLER_39_66
*917 FILLER_39_70
*918 FILLER_39_73
*919 FILLER_3_137
*920 FILLER_3_141
*921 FILLER_3_144
*922 FILLER_3_2
*923 FILLER_3_208
*924 FILLER_3_212
*925 FILLER_3_215
*926 FILLER_3_279
*927 FILLER_3_283
*928 FILLER_3_286
*929 FILLER_3_350
*930 FILLER_3_354
*931 FILLER_3_357
*932 FILLER_3_389
*933 FILLER_3_405
*934 FILLER_3_413
*935 FILLER_3_417
*936 FILLER_3_419
*937 FILLER_3_66
*938 FILLER_3_70
*939 FILLER_3_73
*940 FILLER_40_101
*941 FILLER_40_105
*942 FILLER_40_108
*943 FILLER_40_172
*944 FILLER_40_176
*945 FILLER_40_179
*946 FILLER_40_2
*947 FILLER_40_243
*948 FILLER_40_247
*949 FILLER_40_250
*950 FILLER_40_314
*951 FILLER_40_318
*952 FILLER_40_321
*953 FILLER_40_34
*954 FILLER_40_37
*955 FILLER_40_385
*956 FILLER_40_389
*957 FILLER_40_392
*958 FILLER_40_408
*959 FILLER_40_412
*960 FILLER_40_414
*961 FILLER_40_419
*962 FILLER_41_137
*963 FILLER_41_141
*964 FILLER_41_144
*965 FILLER_41_2
*966 FILLER_41_208
*967 FILLER_41_212
*968 FILLER_41_215
*969 FILLER_41_279
*970 FILLER_41_283
*971 FILLER_41_286
*972 FILLER_41_350
*973 FILLER_41_354
*974 FILLER_41_357
*975 FILLER_41_389
*976 FILLER_41_405
*977 FILLER_41_413
*978 FILLER_41_417
*979 FILLER_41_419
*980 FILLER_41_7
*981 FILLER_41_73
*982 FILLER_42_101
*983 FILLER_42_105
*984 FILLER_42_108
*985 FILLER_42_172
*986 FILLER_42_176
*987 FILLER_42_179
*988 FILLER_42_2
*989 FILLER_42_243
*990 FILLER_42_247
*991 FILLER_42_250
*992 FILLER_42_314
*993 FILLER_42_318
*994 FILLER_42_321
*995 FILLER_42_34
*996 FILLER_42_37
*997 FILLER_42_385
*998 FILLER_42_389
*999 FILLER_42_392
*1000 FILLER_42_408
*1001 FILLER_42_412
*1002 FILLER_42_414
*1003 FILLER_42_419
*1004 FILLER_43_137
*1005 FILLER_43_141
*1006 FILLER_43_144
*1007 FILLER_43_2
*1008 FILLER_43_208
*1009 FILLER_43_212
*1010 FILLER_43_215
*1011 FILLER_43_279
*1012 FILLER_43_283
*1013 FILLER_43_286
*1014 FILLER_43_350
*1015 FILLER_43_354
*1016 FILLER_43_357
*1017 FILLER_43_389
*1018 FILLER_43_405
*1019 FILLER_43_413
*1020 FILLER_43_417
*1021 FILLER_43_419
*1022 FILLER_43_7
*1023 FILLER_43_73
*1024 FILLER_44_101
*1025 FILLER_44_105
*1026 FILLER_44_108
*1027 FILLER_44_172
*1028 FILLER_44_176
*1029 FILLER_44_179
*1030 FILLER_44_2
*1031 FILLER_44_243
*1032 FILLER_44_247
*1033 FILLER_44_250
*1034 FILLER_44_314
*1035 FILLER_44_318
*1036 FILLER_44_321
*1037 FILLER_44_34
*1038 FILLER_44_37
*1039 FILLER_44_385
*1040 FILLER_44_389
*1041 FILLER_44_392
*1042 FILLER_44_408
*1043 FILLER_44_412
*1044 FILLER_44_414
*1045 FILLER_44_419
*1046 FILLER_45_137
*1047 FILLER_45_141
*1048 FILLER_45_144
*1049 FILLER_45_2
*1050 FILLER_45_208
*1051 FILLER_45_212
*1052 FILLER_45_215
*1053 FILLER_45_279
*1054 FILLER_45_283
*1055 FILLER_45_286
*1056 FILLER_45_350
*1057 FILLER_45_354
*1058 FILLER_45_357
*1059 FILLER_45_389
*1060 FILLER_45_405
*1061 FILLER_45_413
*1062 FILLER_45_417
*1063 FILLER_45_419
*1064 FILLER_45_7
*1065 FILLER_45_73
*1066 FILLER_46_101
*1067 FILLER_46_105
*1068 FILLER_46_108
*1069 FILLER_46_172
*1070 FILLER_46_176
*1071 FILLER_46_179
*1072 FILLER_46_2
*1073 FILLER_46_243
*1074 FILLER_46_247
*1075 FILLER_46_250
*1076 FILLER_46_314
*1077 FILLER_46_318
*1078 FILLER_46_321
*1079 FILLER_46_34
*1080 FILLER_46_37
*1081 FILLER_46_385
*1082 FILLER_46_389
*1083 FILLER_46_392
*1084 FILLER_46_408
*1085 FILLER_46_416
*1086 FILLER_47_137
*1087 FILLER_47_141
*1088 FILLER_47_144
*1089 FILLER_47_2
*1090 FILLER_47_208
*1091 FILLER_47_212
*1092 FILLER_47_215
*1093 FILLER_47_279
*1094 FILLER_47_283
*1095 FILLER_47_286
*1096 FILLER_47_294
*1097 FILLER_47_298
*1098 FILLER_47_330
*1099 FILLER_47_346
*1100 FILLER_47_354
*1101 FILLER_47_357
*1102 FILLER_47_389
*1103 FILLER_47_405
*1104 FILLER_47_413
*1105 FILLER_47_419
*1106 FILLER_47_66
*1107 FILLER_47_70
*1108 FILLER_47_73
*1109 FILLER_48_101
*1110 FILLER_48_105
*1111 FILLER_48_108
*1112 FILLER_48_172
*1113 FILLER_48_176
*1114 FILLER_48_179
*1115 FILLER_48_2
*1116 FILLER_48_243
*1117 FILLER_48_247
*1118 FILLER_48_250
*1119 FILLER_48_266
*1120 FILLER_48_309
*1121 FILLER_48_313
*1122 FILLER_48_317
*1123 FILLER_48_321
*1124 FILLER_48_34
*1125 FILLER_48_37
*1126 FILLER_48_385
*1127 FILLER_48_389
*1128 FILLER_48_392
*1129 FILLER_48_408
*1130 FILLER_48_416
*1131 FILLER_49_137
*1132 FILLER_49_141
*1133 FILLER_49_144
*1134 FILLER_49_2
*1135 FILLER_49_208
*1136 FILLER_49_212
*1137 FILLER_49_215
*1138 FILLER_49_279
*1139 FILLER_49_283
*1140 FILLER_49_286
*1141 FILLER_49_294
*1142 FILLER_49_300
*1143 FILLER_49_304
*1144 FILLER_49_336
*1145 FILLER_49_352
*1146 FILLER_49_354
*1147 FILLER_49_357
*1148 FILLER_49_389
*1149 FILLER_49_405
*1150 FILLER_49_413
*1151 FILLER_49_417
*1152 FILLER_49_419
*1153 FILLER_49_66
*1154 FILLER_49_70
*1155 FILLER_49_73
*1156 FILLER_4_101
*1157 FILLER_4_105
*1158 FILLER_4_108
*1159 FILLER_4_172
*1160 FILLER_4_176
*1161 FILLER_4_179
*1162 FILLER_4_2
*1163 FILLER_4_243
*1164 FILLER_4_247
*1165 FILLER_4_250
*1166 FILLER_4_314
*1167 FILLER_4_318
*1168 FILLER_4_321
*1169 FILLER_4_34
*1170 FILLER_4_37
*1171 FILLER_4_385
*1172 FILLER_4_389
*1173 FILLER_4_392
*1174 FILLER_4_408
*1175 FILLER_4_412
*1176 FILLER_4_414
*1177 FILLER_4_419
*1178 FILLER_50_101
*1179 FILLER_50_105
*1180 FILLER_50_108
*1181 FILLER_50_172
*1182 FILLER_50_176
*1183 FILLER_50_179
*1184 FILLER_50_2
*1185 FILLER_50_23
*1186 FILLER_50_243
*1187 FILLER_50_247
*1188 FILLER_50_250
*1189 FILLER_50_31
*1190 FILLER_50_314
*1191 FILLER_50_318
*1192 FILLER_50_321
*1193 FILLER_50_37
*1194 FILLER_50_385
*1195 FILLER_50_389
*1196 FILLER_50_392
*1197 FILLER_50_408
*1198 FILLER_50_416
*1199 FILLER_50_7
*1200 FILLER_51_137
*1201 FILLER_51_141
*1202 FILLER_51_144
*1203 FILLER_51_2
*1204 FILLER_51_208
*1205 FILLER_51_212
*1206 FILLER_51_215
*1207 FILLER_51_247
*1208 FILLER_51_255
*1209 FILLER_51_263
*1210 FILLER_51_267
*1211 FILLER_51_283
*1212 FILLER_51_286
*1213 FILLER_51_350
*1214 FILLER_51_354
*1215 FILLER_51_357
*1216 FILLER_51_389
*1217 FILLER_51_405
*1218 FILLER_51_411
*1219 FILLER_51_419
*1220 FILLER_51_5
*1221 FILLER_51_69
*1222 FILLER_51_73
*1223 FILLER_52_101
*1224 FILLER_52_105
*1225 FILLER_52_108
*1226 FILLER_52_17
*1227 FILLER_52_172
*1228 FILLER_52_176
*1229 FILLER_52_179
*1230 FILLER_52_2
*1231 FILLER_52_21
*1232 FILLER_52_243
*1233 FILLER_52_247
*1234 FILLER_52_250
*1235 FILLER_52_29
*1236 FILLER_52_314
*1237 FILLER_52_318
*1238 FILLER_52_321
*1239 FILLER_52_33
*1240 FILLER_52_37
*1241 FILLER_52_385
*1242 FILLER_52_389
*1243 FILLER_52_392
*1244 FILLER_52_408
*1245 FILLER_52_416
*1246 FILLER_53_13
*1247 FILLER_53_137
*1248 FILLER_53_141
*1249 FILLER_53_144
*1250 FILLER_53_176
*1251 FILLER_53_180
*1252 FILLER_53_185
*1253 FILLER_53_19
*1254 FILLER_53_2
*1255 FILLER_53_201
*1256 FILLER_53_209
*1257 FILLER_53_215
*1258 FILLER_53_218
*1259 FILLER_53_226
*1260 FILLER_53_228
*1261 FILLER_53_233
*1262 FILLER_53_249
*1263 FILLER_53_257
*1264 FILLER_53_263
*1265 FILLER_53_271
*1266 FILLER_53_279
*1267 FILLER_53_283
*1268 FILLER_53_286
*1269 FILLER_53_294
*1270 FILLER_53_300
*1271 FILLER_53_332
*1272 FILLER_53_348
*1273 FILLER_53_352
*1274 FILLER_53_354
*1275 FILLER_53_357
*1276 FILLER_53_389
*1277 FILLER_53_405
*1278 FILLER_53_413
*1279 FILLER_53_417
*1280 FILLER_53_419
*1281 FILLER_53_51
*1282 FILLER_53_67
*1283 FILLER_53_7
*1284 FILLER_53_73
*1285 FILLER_54_107
*1286 FILLER_54_112
*1287 FILLER_54_128
*1288 FILLER_54_136
*1289 FILLER_54_142
*1290 FILLER_54_15
*1291 FILLER_54_150
*1292 FILLER_54_155
*1293 FILLER_54_163
*1294 FILLER_54_169
*1295 FILLER_54_173
*1296 FILLER_54_177
*1297 FILLER_54_19
*1298 FILLER_54_192
*1299 FILLER_54_196
*1300 FILLER_54_198
*1301 FILLER_54_2
*1302 FILLER_54_201
*1303 FILLER_54_209
*1304 FILLER_54_212
*1305 FILLER_54_242
*1306 FILLER_54_244
*1307 FILLER_54_247
*1308 FILLER_54_250
*1309 FILLER_54_258
*1310 FILLER_54_274
*1311 FILLER_54_278
*1312 FILLER_54_282
*1313 FILLER_54_297
*1314 FILLER_54_299
*1315 FILLER_54_314
*1316 FILLER_54_317
*1317 FILLER_54_329
*1318 FILLER_54_337
*1319 FILLER_54_34
*1320 FILLER_54_341
*1321 FILLER_54_347
*1322 FILLER_54_349
*1323 FILLER_54_352
*1324 FILLER_54_360
*1325 FILLER_54_364
*1326 FILLER_54_368
*1327 FILLER_54_37
*1328 FILLER_54_384
*1329 FILLER_54_387
*1330 FILLER_54_40
*1331 FILLER_54_403
*1332 FILLER_54_411
*1333 FILLER_54_419
*1334 FILLER_54_48
*1335 FILLER_54_52
*1336 FILLER_54_54
*1337 FILLER_54_59
*1338 FILLER_54_67
*1339 FILLER_54_69
*1340 FILLER_54_72
*1341 FILLER_54_77
*1342 FILLER_54_85
*1343 FILLER_54_89
*1344 FILLER_54_9
*1345 FILLER_54_97
*1346 FILLER_5_137
*1347 FILLER_5_141
*1348 FILLER_5_144
*1349 FILLER_5_2
*1350 FILLER_5_208
*1351 FILLER_5_212
*1352 FILLER_5_215
*1353 FILLER_5_279
*1354 FILLER_5_283
*1355 FILLER_5_286
*1356 FILLER_5_350
*1357 FILLER_5_354
*1358 FILLER_5_357
*1359 FILLER_5_389
*1360 FILLER_5_405
*1361 FILLER_5_413
*1362 FILLER_5_417
*1363 FILLER_5_419
*1364 FILLER_5_7
*1365 FILLER_5_73
*1366 FILLER_6_101
*1367 FILLER_6_105
*1368 FILLER_6_108
*1369 FILLER_6_172
*1370 FILLER_6_176
*1371 FILLER_6_179
*1372 FILLER_6_2
*1373 FILLER_6_243
*1374 FILLER_6_247
*1375 FILLER_6_250
*1376 FILLER_6_314
*1377 FILLER_6_318
*1378 FILLER_6_321
*1379 FILLER_6_34
*1380 FILLER_6_37
*1381 FILLER_6_385
*1382 FILLER_6_389
*1383 FILLER_6_392
*1384 FILLER_6_408
*1385 FILLER_6_412
*1386 FILLER_6_414
*1387 FILLER_6_419
*1388 FILLER_7_137
*1389 FILLER_7_141
*1390 FILLER_7_144
*1391 FILLER_7_2
*1392 FILLER_7_208
*1393 FILLER_7_212
*1394 FILLER_7_215
*1395 FILLER_7_279
*1396 FILLER_7_283
*1397 FILLER_7_286
*1398 FILLER_7_350
*1399 FILLER_7_354
*1400 FILLER_7_357
*1401 FILLER_7_389
*1402 FILLER_7_405
*1403 FILLER_7_413
*1404 FILLER_7_417
*1405 FILLER_7_419
*1406 FILLER_7_7
*1407 FILLER_7_73
*1408 FILLER_8_101
*1409 FILLER_8_105
*1410 FILLER_8_108
*1411 FILLER_8_172
*1412 FILLER_8_176
*1413 FILLER_8_179
*1414 FILLER_8_2
*1415 FILLER_8_243
*1416 FILLER_8_247
*1417 FILLER_8_250
*1418 FILLER_8_314
*1419 FILLER_8_318
*1420 FILLER_8_321
*1421 FILLER_8_34
*1422 FILLER_8_37
*1423 FILLER_8_385
*1424 FILLER_8_389
*1425 FILLER_8_392
*1426 FILLER_8_408
*1427 FILLER_8_412
*1428 FILLER_8_414
*1429 FILLER_8_419
*1430 FILLER_9_137
*1431 FILLER_9_141
*1432 FILLER_9_144
*1433 FILLER_9_2
*1434 FILLER_9_208
*1435 FILLER_9_212
*1436 FILLER_9_215
*1437 FILLER_9_279
*1438 FILLER_9_283
*1439 FILLER_9_286
*1440 FILLER_9_350
*1441 FILLER_9_354
*1442 FILLER_9_357
*1443 FILLER_9_389
*1444 FILLER_9_405
*1445 FILLER_9_413
*1446 FILLER_9_417
*1447 FILLER_9_419
*1448 FILLER_9_7
*1449 FILLER_9_73
*1450 PHY_0
*1451 PHY_1
*1452 PHY_10
*1453 PHY_100
*1454 PHY_101
*1455 PHY_102
*1456 PHY_103
*1457 PHY_104
*1458 PHY_105
*1459 PHY_106
*1460 PHY_107
*1461 PHY_108
*1462 PHY_109
*1463 PHY_11
*1464 PHY_12
*1465 PHY_13
*1466 PHY_14
*1467 PHY_15
*1468 PHY_16
*1469 PHY_17
*1470 PHY_18
*1471 PHY_19
*1472 PHY_2
*1473 PHY_20
*1474 PHY_21
*1475 PHY_22
*1476 PHY_23
*1477 PHY_24
*1478 PHY_25
*1479 PHY_26
*1480 PHY_27
*1481 PHY_28
*1482 PHY_29
*1483 PHY_3
*1484 PHY_30
*1485 PHY_31
*1486 PHY_32
*1487 PHY_33
*1488 PHY_34
*1489 PHY_35
*1490 PHY_36
*1491 PHY_37
*1492 PHY_38
*1493 PHY_39
*1494 PHY_4
*1495 PHY_40
*1496 PHY_41
*1497 PHY_42
*1498 PHY_43
*1499 PHY_44
*1500 PHY_45
*1501 PHY_46
*1502 PHY_47
*1503 PHY_48
*1504 PHY_49
*1505 PHY_5
*1506 PHY_50
*1507 PHY_51
*1508 PHY_52
*1509 PHY_53
*1510 PHY_54
*1511 PHY_55
*1512 PHY_56
*1513 PHY_57
*1514 PHY_58
*1515 PHY_59
*1516 PHY_6
*1517 PHY_60
*1518 PHY_61
*1519 PHY_62
*1520 PHY_63
*1521 PHY_64
*1522 PHY_65
*1523 PHY_66
*1524 PHY_67
*1525 PHY_68
*1526 PHY_69
*1527 PHY_7
*1528 PHY_70
*1529 PHY_71
*1530 PHY_72
*1531 PHY_73
*1532 PHY_74
*1533 PHY_75
*1534 PHY_76
*1535 PHY_77
*1536 PHY_78
*1537 PHY_79
*1538 PHY_8
*1539 PHY_80
*1540 PHY_81
*1541 PHY_82
*1542 PHY_83
*1543 PHY_84
*1544 PHY_85
*1545 PHY_86
*1546 PHY_87
*1547 PHY_88
*1548 PHY_89
*1549 PHY_9
*1550 PHY_90
*1551 PHY_91
*1552 PHY_92
*1553 PHY_93
*1554 PHY_94
*1555 PHY_95
*1556 PHY_96
*1557 PHY_97
*1558 PHY_98
*1559 PHY_99
*1560 TAP_110
*1561 TAP_111
*1562 TAP_112
*1563 TAP_113
*1564 TAP_114
*1565 TAP_115
*1566 TAP_116
*1567 TAP_117
*1568 TAP_118
*1569 TAP_119
*1570 TAP_120
*1571 TAP_121
*1572 TAP_122
*1573 TAP_123
*1574 TAP_124
*1575 TAP_125
*1576 TAP_126
*1577 TAP_127
*1578 TAP_128
*1579 TAP_129
*1580 TAP_130
*1581 TAP_131
*1582 TAP_132
*1583 TAP_133
*1584 TAP_134
*1585 TAP_135
*1586 TAP_136
*1587 TAP_137
*1588 TAP_138
*1589 TAP_139
*1590 TAP_140
*1591 TAP_141
*1592 TAP_142
*1593 TAP_143
*1594 TAP_144
*1595 TAP_145
*1596 TAP_146
*1597 TAP_147
*1598 TAP_148
*1599 TAP_149
*1600 TAP_150
*1601 TAP_151
*1602 TAP_152
*1603 TAP_153
*1604 TAP_154
*1605 TAP_155
*1606 TAP_156
*1607 TAP_157
*1608 TAP_158
*1609 TAP_159
*1610 TAP_160
*1611 TAP_161
*1612 TAP_162
*1613 TAP_163
*1614 TAP_164
*1615 TAP_165
*1616 TAP_166
*1617 TAP_167
*1618 TAP_168
*1619 TAP_169
*1620 TAP_170
*1621 TAP_171
*1622 TAP_172
*1623 TAP_173
*1624 TAP_174
*1625 TAP_175
*1626 TAP_176
*1627 TAP_177
*1628 TAP_178
*1629 TAP_179
*1630 TAP_180
*1631 TAP_181
*1632 TAP_182
*1633 TAP_183
*1634 TAP_184
*1635 TAP_185
*1636 TAP_186
*1637 TAP_187
*1638 TAP_188
*1639 TAP_189
*1640 TAP_190
*1641 TAP_191
*1642 TAP_192
*1643 TAP_193
*1644 TAP_194
*1645 TAP_195
*1646 TAP_196
*1647 TAP_197
*1648 TAP_198
*1649 TAP_199
*1650 TAP_200
*1651 TAP_201
*1652 TAP_202
*1653 TAP_203
*1654 TAP_204
*1655 TAP_205
*1656 TAP_206
*1657 TAP_207
*1658 TAP_208
*1659 TAP_209
*1660 TAP_210
*1661 TAP_211
*1662 TAP_212
*1663 TAP_213
*1664 TAP_214
*1665 TAP_215
*1666 TAP_216
*1667 TAP_217
*1668 TAP_218
*1669 TAP_219
*1670 TAP_220
*1671 TAP_221
*1672 TAP_222
*1673 TAP_223
*1674 TAP_224
*1675 TAP_225
*1676 TAP_226
*1677 TAP_227
*1678 TAP_228
*1679 TAP_229
*1680 TAP_230
*1681 TAP_231
*1682 TAP_232
*1683 TAP_233
*1684 TAP_234
*1685 TAP_235
*1686 TAP_236
*1687 TAP_237
*1688 TAP_238
*1689 TAP_239