*SPEF "ieee 1481-1999"
*DESIGN "tiny_user_project"
*DATE "11:11:11 Fri 11 11, 1111"
*VENDOR "OpenRCX"
*PROGRAM "Parallel Extraction"
*VERSION "1.0"
*DESIGN_FLOW "NAME_SCOPE LOCAL" "PIN_CAP NONE"
*DIVIDER /
*DELIMITER :
*BUS_DELIMITER []
*T_UNIT 1 NS
*C_UNIT 1 PF
*R_UNIT 1 OHM
*L_UNIT 1 HENRY

*NAME_MAP
*1 io_in[0]
*2 io_in[10]
*3 io_in[11]
*4 io_in[12]
*5 io_in[13]
*6 io_in[14]
*7 io_in[15]
*8 io_in[16]
*9 io_in[17]
*10 io_in[18]
*11 io_in[19]
*12 io_in[1]
*13 io_in[20]
*14 io_in[21]
*15 io_in[22]
*16 io_in[23]
*17 io_in[24]
*18 io_in[25]
*19 io_in[26]
*20 io_in[27]
*21 io_in[28]
*22 io_in[29]
*23 io_in[2]
*24 io_in[30]
*25 io_in[31]
*26 io_in[32]
*27 io_in[33]
*28 io_in[34]
*29 io_in[35]
*30 io_in[36]
*31 io_in[37]
*32 io_in[3]
*33 io_in[4]
*34 io_in[5]
*35 io_in[6]
*36 io_in[7]
*37 io_in[8]
*38 io_in[9]
*39 net47
*40 net57
*41 net58
*42 net59
*43 net60
*44 net61
*45 net62
*46 net63
*47 net64
*48 net65
*49 net66
*50 net48
*51 net67
*52 net68
*53 net69
*54 net70
*55 net71
*56 net72
*57 net73
*58 net74
*59 net75
*60 net76
*61 net49
*62 net77
*63 net78
*64 net79
*65 net80
*66 net81
*67 net82
*68 net83
*69 net84
*70 net50
*71 net51
*72 net52
*73 net53
*74 net54
*75 net55
*76 net56
*77 net17
*78 net27
*79 net28
*80 net29
*81 net30
*82 net31
*83 net32
*84 net33
*85 net34
*86 net35
*87 net36
*88 net18
*89 io_out[20]
*90 io_out[21]
*91 io_out[22]
*92 io_out[23]
*93 io_out[24]
*94 io_out[25]
*95 io_out[26]
*96 io_out[27]
*97 net37
*98 net38
*99 net19
*100 net39
*101 net40
*102 net41
*103 net42
*104 net43
*105 net44
*106 net45
*107 net46
*108 net20
*109 net21
*110 net22
*111 net23
*112 net24
*113 net25
*114 net26
*117 _000_
*118 _001_
*119 _002_
*120 _003_
*121 _004_
*122 _005_
*123 _006_
*124 _007_
*125 _008_
*126 mod\.flipflop1\.clk
*127 mod\.flipflop1\.d
*128 mod\.flipflop3\.d
*129 mod\.flipflop4\.d
*130 mod\.flipflop5\.d
*131 mod\.flipflop6\.d
*132 mod\.flop2\.clk
*133 net1
*134 net10
*135 net11
*136 net12
*137 net13
*138 net14
*139 net15
*140 net16
*141 net2
*142 net3
*143 net4
*144 net5
*145 net6
*146 net7
*147 net8
*148 net9
*149 ANTENNA__009__A1
*150 ANTENNA__009__A2
*151 ANTENNA__011__I
*152 ANTENNA__014__A1
*153 ANTENNA__014__A2
*154 ANTENNA__015__A1
*155 ANTENNA__015__A2
*156 ANTENNA__017__A1
*157 ANTENNA__017__A2
*158 ANTENNA__019__A1
*159 ANTENNA__019__A2
*160 ANTENNA__021__A2
*161 ANTENNA__023__A2
*162 ANTENNA_input1_I
*163 ANTENNA_input2_I
*164 ANTENNA_input3_I
*165 ANTENNA_input4_I
*166 ANTENNA_input5_I
*167 ANTENNA_input6_I
*168 ANTENNA_input7_I
*169 ANTENNA_input8_I
*170 ANTENNA_output11_I
*171 ANTENNA_output12_I
*172 ANTENNA_output13_I
*173 ANTENNA_output14_I
*174 ANTENNA_output15_I
*175 ANTENNA_output16_I
*176 ANTENNA_output9_I
*177 FILLER_0_103
*178 FILLER_0_107
*179 FILLER_0_119
*180 FILLER_0_131
*181 FILLER_0_139
*182 FILLER_0_142
*183 FILLER_0_144
*184 FILLER_0_149
*185 FILLER_0_155
*186 FILLER_0_163
*187 FILLER_0_17
*188 FILLER_0_171
*189 FILLER_0_177
*190 FILLER_0_182
*191 FILLER_0_190
*192 FILLER_0_192
*193 FILLER_0_197
*194 FILLER_0_2
*195 FILLER_0_205
*196 FILLER_0_209
*197 FILLER_0_212
*198 FILLER_0_220
*199 FILLER_0_222
*200 FILLER_0_227
*201 FILLER_0_23
*202 FILLER_0_243
*203 FILLER_0_247
*204 FILLER_0_252
*205 FILLER_0_268
*206 FILLER_0_27
*207 FILLER_0_270
*208 FILLER_0_275
*209 FILLER_0_279
*210 FILLER_0_282
*211 FILLER_0_298
*212 FILLER_0_300
*213 FILLER_0_305
*214 FILLER_0_309
*215 FILLER_0_311
*216 FILLER_0_314
*217 FILLER_0_317
*218 FILLER_0_325
*219 FILLER_0_329
*220 FILLER_0_335
*221 FILLER_0_343
*222 FILLER_0_347
*223 FILLER_0_349
*224 FILLER_0_352
*225 FILLER_0_357
*226 FILLER_0_365
*227 FILLER_0_37
*228 FILLER_0_371
*229 FILLER_0_383
*230 FILLER_0_387
*231 FILLER_0_395
*232 FILLER_0_401
*233 FILLER_0_405
*234 FILLER_0_411
*235 FILLER_0_419
*236 FILLER_0_42
*237 FILLER_0_58
*238 FILLER_0_66
*239 FILLER_0_72
*240 FILLER_0_77
*241 FILLER_0_95
*242 FILLER_10_101
*243 FILLER_10_105
*244 FILLER_10_108
*245 FILLER_10_172
*246 FILLER_10_176
*247 FILLER_10_179
*248 FILLER_10_2
*249 FILLER_10_243
*250 FILLER_10_247
*251 FILLER_10_250
*252 FILLER_10_314
*253 FILLER_10_318
*254 FILLER_10_321
*255 FILLER_10_34
*256 FILLER_10_37
*257 FILLER_10_385
*258 FILLER_10_389
*259 FILLER_10_392
*260 FILLER_10_408
*261 FILLER_10_416
*262 FILLER_11_137
*263 FILLER_11_141
*264 FILLER_11_144
*265 FILLER_11_2
*266 FILLER_11_208
*267 FILLER_11_212
*268 FILLER_11_215
*269 FILLER_11_279
*270 FILLER_11_283
*271 FILLER_11_286
*272 FILLER_11_350
*273 FILLER_11_354
*274 FILLER_11_357
*275 FILLER_11_389
*276 FILLER_11_405
*277 FILLER_11_413
*278 FILLER_11_419
*279 FILLER_11_66
*280 FILLER_11_70
*281 FILLER_11_73
*282 FILLER_12_101
*283 FILLER_12_105
*284 FILLER_12_108
*285 FILLER_12_172
*286 FILLER_12_176
*287 FILLER_12_179
*288 FILLER_12_2
*289 FILLER_12_243
*290 FILLER_12_247
*291 FILLER_12_250
*292 FILLER_12_314
*293 FILLER_12_318
*294 FILLER_12_321
*295 FILLER_12_34
*296 FILLER_12_37
*297 FILLER_12_385
*298 FILLER_12_389
*299 FILLER_12_392
*300 FILLER_12_408
*301 FILLER_12_412
*302 FILLER_12_414
*303 FILLER_12_419
*304 FILLER_13_137
*305 FILLER_13_141
*306 FILLER_13_144
*307 FILLER_13_2
*308 FILLER_13_208
*309 FILLER_13_212
*310 FILLER_13_215
*311 FILLER_13_279
*312 FILLER_13_283
*313 FILLER_13_286
*314 FILLER_13_350
*315 FILLER_13_354
*316 FILLER_13_357
*317 FILLER_13_389
*318 FILLER_13_405
*319 FILLER_13_413
*320 FILLER_13_417
*321 FILLER_13_419
*322 FILLER_13_66
*323 FILLER_13_70
*324 FILLER_13_73
*325 FILLER_14_101
*326 FILLER_14_105
*327 FILLER_14_108
*328 FILLER_14_172
*329 FILLER_14_176
*330 FILLER_14_179
*331 FILLER_14_2
*332 FILLER_14_23
*333 FILLER_14_243
*334 FILLER_14_247
*335 FILLER_14_250
*336 FILLER_14_31
*337 FILLER_14_314
*338 FILLER_14_318
*339 FILLER_14_321
*340 FILLER_14_37
*341 FILLER_14_385
*342 FILLER_14_389
*343 FILLER_14_392
*344 FILLER_14_408
*345 FILLER_14_416
*346 FILLER_14_7
*347 FILLER_15_137
*348 FILLER_15_141
*349 FILLER_15_144
*350 FILLER_15_2
*351 FILLER_15_208
*352 FILLER_15_212
*353 FILLER_15_215
*354 FILLER_15_279
*355 FILLER_15_283
*356 FILLER_15_286
*357 FILLER_15_350
*358 FILLER_15_354
*359 FILLER_15_357
*360 FILLER_15_389
*361 FILLER_15_405
*362 FILLER_15_413
*363 FILLER_15_417
*364 FILLER_15_419
*365 FILLER_15_66
*366 FILLER_15_70
*367 FILLER_15_73
*368 FILLER_16_101
*369 FILLER_16_105
*370 FILLER_16_108
*371 FILLER_16_172
*372 FILLER_16_176
*373 FILLER_16_179
*374 FILLER_16_2
*375 FILLER_16_23
*376 FILLER_16_243
*377 FILLER_16_247
*378 FILLER_16_250
*379 FILLER_16_31
*380 FILLER_16_314
*381 FILLER_16_318
*382 FILLER_16_321
*383 FILLER_16_37
*384 FILLER_16_385
*385 FILLER_16_389
*386 FILLER_16_392
*387 FILLER_16_408
*388 FILLER_16_416
*389 FILLER_16_7
*390 FILLER_17_137
*391 FILLER_17_141
*392 FILLER_17_144
*393 FILLER_17_2
*394 FILLER_17_208
*395 FILLER_17_212
*396 FILLER_17_215
*397 FILLER_17_279
*398 FILLER_17_283
*399 FILLER_17_286
*400 FILLER_17_350
*401 FILLER_17_354
*402 FILLER_17_357
*403 FILLER_17_389
*404 FILLER_17_405
*405 FILLER_17_413
*406 FILLER_17_417
*407 FILLER_17_419
*408 FILLER_17_66
*409 FILLER_17_70
*410 FILLER_17_73
*411 FILLER_18_101
*412 FILLER_18_105
*413 FILLER_18_108
*414 FILLER_18_172
*415 FILLER_18_176
*416 FILLER_18_179
*417 FILLER_18_2
*418 FILLER_18_23
*419 FILLER_18_243
*420 FILLER_18_247
*421 FILLER_18_250
*422 FILLER_18_31
*423 FILLER_18_314
*424 FILLER_18_318
*425 FILLER_18_321
*426 FILLER_18_37
*427 FILLER_18_385
*428 FILLER_18_389
*429 FILLER_18_392
*430 FILLER_18_408
*431 FILLER_18_412
*432 FILLER_18_414
*433 FILLER_18_419
*434 FILLER_18_7
*435 FILLER_19_137
*436 FILLER_19_141
*437 FILLER_19_144
*438 FILLER_19_2
*439 FILLER_19_208
*440 FILLER_19_212
*441 FILLER_19_215
*442 FILLER_19_279
*443 FILLER_19_283
*444 FILLER_19_286
*445 FILLER_19_350
*446 FILLER_19_354
*447 FILLER_19_357
*448 FILLER_19_389
*449 FILLER_19_405
*450 FILLER_19_413
*451 FILLER_19_419
*452 FILLER_19_66
*453 FILLER_19_70
*454 FILLER_19_73
*455 FILLER_1_13
*456 FILLER_1_137
*457 FILLER_1_141
*458 FILLER_1_144
*459 FILLER_1_2
*460 FILLER_1_208
*461 FILLER_1_212
*462 FILLER_1_215
*463 FILLER_1_279
*464 FILLER_1_283
*465 FILLER_1_286
*466 FILLER_1_350
*467 FILLER_1_354
*468 FILLER_1_357
*469 FILLER_1_389
*470 FILLER_1_405
*471 FILLER_1_409
*472 FILLER_1_413
*473 FILLER_1_419
*474 FILLER_1_45
*475 FILLER_1_61
*476 FILLER_1_69
*477 FILLER_1_7
*478 FILLER_1_73
*479 FILLER_20_101
*480 FILLER_20_105
*481 FILLER_20_108
*482 FILLER_20_172
*483 FILLER_20_176
*484 FILLER_20_179
*485 FILLER_20_2
*486 FILLER_20_23
*487 FILLER_20_243
*488 FILLER_20_247
*489 FILLER_20_250
*490 FILLER_20_31
*491 FILLER_20_314
*492 FILLER_20_318
*493 FILLER_20_321
*494 FILLER_20_37
*495 FILLER_20_385
*496 FILLER_20_389
*497 FILLER_20_392
*498 FILLER_20_408
*499 FILLER_20_416
*500 FILLER_20_7
*501 FILLER_21_137
*502 FILLER_21_141
*503 FILLER_21_144
*504 FILLER_21_2
*505 FILLER_21_208
*506 FILLER_21_212
*507 FILLER_21_215
*508 FILLER_21_279
*509 FILLER_21_283
*510 FILLER_21_286
*511 FILLER_21_350
*512 FILLER_21_354
*513 FILLER_21_357
*514 FILLER_21_389
*515 FILLER_21_405
*516 FILLER_21_413
*517 FILLER_21_417
*518 FILLER_21_419
*519 FILLER_21_66
*520 FILLER_21_70
*521 FILLER_21_73
*522 FILLER_22_101
*523 FILLER_22_105
*524 FILLER_22_108
*525 FILLER_22_172
*526 FILLER_22_176
*527 FILLER_22_179
*528 FILLER_22_2
*529 FILLER_22_243
*530 FILLER_22_247
*531 FILLER_22_250
*532 FILLER_22_314
*533 FILLER_22_318
*534 FILLER_22_321
*535 FILLER_22_34
*536 FILLER_22_37
*537 FILLER_22_385
*538 FILLER_22_389
*539 FILLER_22_392
*540 FILLER_22_408
*541 FILLER_22_416
*542 FILLER_23_137
*543 FILLER_23_141
*544 FILLER_23_144
*545 FILLER_23_2
*546 FILLER_23_208
*547 FILLER_23_212
*548 FILLER_23_215
*549 FILLER_23_279
*550 FILLER_23_283
*551 FILLER_23_286
*552 FILLER_23_350
*553 FILLER_23_354
*554 FILLER_23_357
*555 FILLER_23_389
*556 FILLER_23_405
*557 FILLER_23_413
*558 FILLER_23_417
*559 FILLER_23_419
*560 FILLER_23_7
*561 FILLER_23_73
*562 FILLER_24_101
*563 FILLER_24_105
*564 FILLER_24_108
*565 FILLER_24_172
*566 FILLER_24_176
*567 FILLER_24_179
*568 FILLER_24_2
*569 FILLER_24_243
*570 FILLER_24_247
*571 FILLER_24_250
*572 FILLER_24_314
*573 FILLER_24_318
*574 FILLER_24_321
*575 FILLER_24_34
*576 FILLER_24_37
*577 FILLER_24_385
*578 FILLER_24_389
*579 FILLER_24_392
*580 FILLER_24_408
*581 FILLER_24_412
*582 FILLER_24_414
*583 FILLER_24_419
*584 FILLER_25_137
*585 FILLER_25_141
*586 FILLER_25_144
*587 FILLER_25_17
*588 FILLER_25_2
*589 FILLER_25_208
*590 FILLER_25_21
*591 FILLER_25_212
*592 FILLER_25_215
*593 FILLER_25_279
*594 FILLER_25_283
*595 FILLER_25_286
*596 FILLER_25_350
*597 FILLER_25_354
*598 FILLER_25_357
*599 FILLER_25_389
*600 FILLER_25_405
*601 FILLER_25_413
*602 FILLER_25_417
*603 FILLER_25_419
*604 FILLER_25_53
*605 FILLER_25_69
*606 FILLER_25_73
*607 FILLER_26_101
*608 FILLER_26_105
*609 FILLER_26_108
*610 FILLER_26_172
*611 FILLER_26_176
*612 FILLER_26_179
*613 FILLER_26_2
*614 FILLER_26_243
*615 FILLER_26_247
*616 FILLER_26_250
*617 FILLER_26_314
*618 FILLER_26_318
*619 FILLER_26_321
*620 FILLER_26_34
*621 FILLER_26_37
*622 FILLER_26_385
*623 FILLER_26_389
*624 FILLER_26_392
*625 FILLER_26_408
*626 FILLER_26_412
*627 FILLER_26_414
*628 FILLER_26_419
*629 FILLER_27_137
*630 FILLER_27_141
*631 FILLER_27_144
*632 FILLER_27_2
*633 FILLER_27_208
*634 FILLER_27_212
*635 FILLER_27_215
*636 FILLER_27_279
*637 FILLER_27_283
*638 FILLER_27_286
*639 FILLER_27_350
*640 FILLER_27_354
*641 FILLER_27_357
*642 FILLER_27_389
*643 FILLER_27_405
*644 FILLER_27_413
*645 FILLER_27_417
*646 FILLER_27_419
*647 FILLER_27_7
*648 FILLER_27_73
*649 FILLER_28_101
*650 FILLER_28_105
*651 FILLER_28_108
*652 FILLER_28_172
*653 FILLER_28_176
*654 FILLER_28_179
*655 FILLER_28_2
*656 FILLER_28_243
*657 FILLER_28_247
*658 FILLER_28_250
*659 FILLER_28_314
*660 FILLER_28_318
*661 FILLER_28_321
*662 FILLER_28_34
*663 FILLER_28_37
*664 FILLER_28_385
*665 FILLER_28_389
*666 FILLER_28_392
*667 FILLER_28_408
*668 FILLER_28_416
*669 FILLER_29_137
*670 FILLER_29_141
*671 FILLER_29_144
*672 FILLER_29_2
*673 FILLER_29_208
*674 FILLER_29_212
*675 FILLER_29_215
*676 FILLER_29_279
*677 FILLER_29_283
*678 FILLER_29_286
*679 FILLER_29_350
*680 FILLER_29_354
*681 FILLER_29_357
*682 FILLER_29_389
*683 FILLER_29_405
*684 FILLER_29_413
*685 FILLER_29_417
*686 FILLER_29_419
*687 FILLER_29_66
*688 FILLER_29_70
*689 FILLER_29_73
*690 FILLER_2_101
*691 FILLER_2_105
*692 FILLER_2_108
*693 FILLER_2_172
*694 FILLER_2_176
*695 FILLER_2_179
*696 FILLER_2_2
*697 FILLER_2_243
*698 FILLER_2_247
*699 FILLER_2_250
*700 FILLER_2_314
*701 FILLER_2_318
*702 FILLER_2_321
*703 FILLER_2_34
*704 FILLER_2_37
*705 FILLER_2_385
*706 FILLER_2_389
*707 FILLER_2_392
*708 FILLER_2_408
*709 FILLER_2_416
*710 FILLER_30_101
*711 FILLER_30_105
*712 FILLER_30_108
*713 FILLER_30_172
*714 FILLER_30_176
*715 FILLER_30_179
*716 FILLER_30_2
*717 FILLER_30_23
*718 FILLER_30_243
*719 FILLER_30_247
*720 FILLER_30_250
*721 FILLER_30_31
*722 FILLER_30_314
*723 FILLER_30_318
*724 FILLER_30_321
*725 FILLER_30_37
*726 FILLER_30_385
*727 FILLER_30_389
*728 FILLER_30_392
*729 FILLER_30_408
*730 FILLER_30_412
*731 FILLER_30_414
*732 FILLER_30_419
*733 FILLER_30_7
*734 FILLER_31_137
*735 FILLER_31_141
*736 FILLER_31_144
*737 FILLER_31_2
*738 FILLER_31_208
*739 FILLER_31_212
*740 FILLER_31_215
*741 FILLER_31_279
*742 FILLER_31_283
*743 FILLER_31_286
*744 FILLER_31_350
*745 FILLER_31_354
*746 FILLER_31_357
*747 FILLER_31_389
*748 FILLER_31_405
*749 FILLER_31_413
*750 FILLER_31_417
*751 FILLER_31_419
*752 FILLER_31_66
*753 FILLER_31_70
*754 FILLER_31_73
*755 FILLER_32_101
*756 FILLER_32_105
*757 FILLER_32_108
*758 FILLER_32_172
*759 FILLER_32_176
*760 FILLER_32_179
*761 FILLER_32_2
*762 FILLER_32_23
*763 FILLER_32_243
*764 FILLER_32_247
*765 FILLER_32_250
*766 FILLER_32_31
*767 FILLER_32_314
*768 FILLER_32_318
*769 FILLER_32_321
*770 FILLER_32_37
*771 FILLER_32_385
*772 FILLER_32_389
*773 FILLER_32_392
*774 FILLER_32_408
*775 FILLER_32_416
*776 FILLER_32_7
*777 FILLER_33_137
*778 FILLER_33_141
*779 FILLER_33_144
*780 FILLER_33_2
*781 FILLER_33_208
*782 FILLER_33_212
*783 FILLER_33_215
*784 FILLER_33_279
*785 FILLER_33_283
*786 FILLER_33_286
*787 FILLER_33_350
*788 FILLER_33_354
*789 FILLER_33_357
*790 FILLER_33_389
*791 FILLER_33_405
*792 FILLER_33_413
*793 FILLER_33_419
*794 FILLER_33_66
*795 FILLER_33_70
*796 FILLER_33_73
*797 FILLER_34_101
*798 FILLER_34_105
*799 FILLER_34_108
*800 FILLER_34_172
*801 FILLER_34_176
*802 FILLER_34_179
*803 FILLER_34_2
*804 FILLER_34_23
*805 FILLER_34_243
*806 FILLER_34_247
*807 FILLER_34_250
*808 FILLER_34_31
*809 FILLER_34_314
*810 FILLER_34_318
*811 FILLER_34_321
*812 FILLER_34_37
*813 FILLER_34_385
*814 FILLER_34_389
*815 FILLER_34_392
*816 FILLER_34_408
*817 FILLER_34_416
*818 FILLER_34_7
*819 FILLER_35_137
*820 FILLER_35_141
*821 FILLER_35_144
*822 FILLER_35_2
*823 FILLER_35_208
*824 FILLER_35_212
*825 FILLER_35_215
*826 FILLER_35_279
*827 FILLER_35_283
*828 FILLER_35_286
*829 FILLER_35_350
*830 FILLER_35_354
*831 FILLER_35_357
*832 FILLER_35_389
*833 FILLER_35_405
*834 FILLER_35_413
*835 FILLER_35_417
*836 FILLER_35_419
*837 FILLER_35_66
*838 FILLER_35_70
*839 FILLER_35_73
*840 FILLER_36_101
*841 FILLER_36_105
*842 FILLER_36_108
*843 FILLER_36_172
*844 FILLER_36_176
*845 FILLER_36_179
*846 FILLER_36_2
*847 FILLER_36_243
*848 FILLER_36_247
*849 FILLER_36_250
*850 FILLER_36_314
*851 FILLER_36_318
*852 FILLER_36_321
*853 FILLER_36_34
*854 FILLER_36_37
*855 FILLER_36_385
*856 FILLER_36_389
*857 FILLER_36_392
*858 FILLER_36_408
*859 FILLER_36_412
*860 FILLER_36_414
*861 FILLER_36_419
*862 FILLER_37_137
*863 FILLER_37_141
*864 FILLER_37_144
*865 FILLER_37_2
*866 FILLER_37_208
*867 FILLER_37_212
*868 FILLER_37_215
*869 FILLER_37_279
*870 FILLER_37_283
*871 FILLER_37_286
*872 FILLER_37_350
*873 FILLER_37_354
*874 FILLER_37_357
*875 FILLER_37_389
*876 FILLER_37_405
*877 FILLER_37_413
*878 FILLER_37_419
*879 FILLER_37_66
*880 FILLER_37_70
*881 FILLER_37_73
*882 FILLER_38_101
*883 FILLER_38_105
*884 FILLER_38_108
*885 FILLER_38_172
*886 FILLER_38_176
*887 FILLER_38_179
*888 FILLER_38_2
*889 FILLER_38_23
*890 FILLER_38_243
*891 FILLER_38_247
*892 FILLER_38_250
*893 FILLER_38_31
*894 FILLER_38_314
*895 FILLER_38_318
*896 FILLER_38_321
*897 FILLER_38_37
*898 FILLER_38_385
*899 FILLER_38_389
*900 FILLER_38_392
*901 FILLER_38_408
*902 FILLER_38_416
*903 FILLER_38_7
*904 FILLER_39_137
*905 FILLER_39_141
*906 FILLER_39_144
*907 FILLER_39_2
*908 FILLER_39_208
*909 FILLER_39_212
*910 FILLER_39_215
*911 FILLER_39_279
*912 FILLER_39_283
*913 FILLER_39_286
*914 FILLER_39_350
*915 FILLER_39_354
*916 FILLER_39_357
*917 FILLER_39_389
*918 FILLER_39_405
*919 FILLER_39_413
*920 FILLER_39_417
*921 FILLER_39_419
*922 FILLER_39_66
*923 FILLER_39_70
*924 FILLER_39_73
*925 FILLER_3_137
*926 FILLER_3_141
*927 FILLER_3_144
*928 FILLER_3_2
*929 FILLER_3_208
*930 FILLER_3_212
*931 FILLER_3_215
*932 FILLER_3_279
*933 FILLER_3_283
*934 FILLER_3_286
*935 FILLER_3_350
*936 FILLER_3_354
*937 FILLER_3_357
*938 FILLER_3_389
*939 FILLER_3_405
*940 FILLER_3_413
*941 FILLER_3_417
*942 FILLER_3_419
*943 FILLER_3_66
*944 FILLER_3_70
*945 FILLER_3_73
*946 FILLER_40_101
*947 FILLER_40_105
*948 FILLER_40_108
*949 FILLER_40_172
*950 FILLER_40_176
*951 FILLER_40_179
*952 FILLER_40_2
*953 FILLER_40_243
*954 FILLER_40_247
*955 FILLER_40_250
*956 FILLER_40_314
*957 FILLER_40_318
*958 FILLER_40_321
*959 FILLER_40_34
*960 FILLER_40_37
*961 FILLER_40_385
*962 FILLER_40_389
*963 FILLER_40_392
*964 FILLER_40_408
*965 FILLER_40_412
*966 FILLER_40_414
*967 FILLER_40_419
*968 FILLER_41_137
*969 FILLER_41_141
*970 FILLER_41_144
*971 FILLER_41_2
*972 FILLER_41_208
*973 FILLER_41_212
*974 FILLER_41_215
*975 FILLER_41_279
*976 FILLER_41_283
*977 FILLER_41_286
*978 FILLER_41_350
*979 FILLER_41_354
*980 FILLER_41_357
*981 FILLER_41_389
*982 FILLER_41_405
*983 FILLER_41_413
*984 FILLER_41_417
*985 FILLER_41_419
*986 FILLER_41_7
*987 FILLER_41_73
*988 FILLER_42_101
*989 FILLER_42_105
*990 FILLER_42_108
*991 FILLER_42_172
*992 FILLER_42_176
*993 FILLER_42_179
*994 FILLER_42_2
*995 FILLER_42_243
*996 FILLER_42_247
*997 FILLER_42_250
*998 FILLER_42_314
*999 FILLER_42_318
*1000 FILLER_42_321
*1001 FILLER_42_34
*1002 FILLER_42_37
*1003 FILLER_42_385
*1004 FILLER_42_389
*1005 FILLER_42_392
*1006 FILLER_42_408
*1007 FILLER_42_412
*1008 FILLER_42_414
*1009 FILLER_42_419
*1010 FILLER_43_137
*1011 FILLER_43_141
*1012 FILLER_43_144
*1013 FILLER_43_2
*1014 FILLER_43_208
*1015 FILLER_43_212
*1016 FILLER_43_215
*1017 FILLER_43_279
*1018 FILLER_43_283
*1019 FILLER_43_286
*1020 FILLER_43_350
*1021 FILLER_43_354
*1022 FILLER_43_357
*1023 FILLER_43_389
*1024 FILLER_43_405
*1025 FILLER_43_413
*1026 FILLER_43_417
*1027 FILLER_43_419
*1028 FILLER_43_7
*1029 FILLER_43_73
*1030 FILLER_44_101
*1031 FILLER_44_105
*1032 FILLER_44_108
*1033 FILLER_44_172
*1034 FILLER_44_176
*1035 FILLER_44_179
*1036 FILLER_44_2
*1037 FILLER_44_243
*1038 FILLER_44_247
*1039 FILLER_44_250
*1040 FILLER_44_314
*1041 FILLER_44_318
*1042 FILLER_44_321
*1043 FILLER_44_34
*1044 FILLER_44_37
*1045 FILLER_44_385
*1046 FILLER_44_389
*1047 FILLER_44_392
*1048 FILLER_44_408
*1049 FILLER_44_412
*1050 FILLER_44_414
*1051 FILLER_44_419
*1052 FILLER_45_137
*1053 FILLER_45_141
*1054 FILLER_45_144
*1055 FILLER_45_2
*1056 FILLER_45_208
*1057 FILLER_45_212
*1058 FILLER_45_215
*1059 FILLER_45_279
*1060 FILLER_45_283
*1061 FILLER_45_286
*1062 FILLER_45_350
*1063 FILLER_45_354
*1064 FILLER_45_357
*1065 FILLER_45_389
*1066 FILLER_45_405
*1067 FILLER_45_413
*1068 FILLER_45_417
*1069 FILLER_45_419
*1070 FILLER_45_7
*1071 FILLER_45_73
*1072 FILLER_46_101
*1073 FILLER_46_105
*1074 FILLER_46_108
*1075 FILLER_46_140
*1076 FILLER_46_156
*1077 FILLER_46_158
*1078 FILLER_46_163
*1079 FILLER_46_167
*1080 FILLER_46_171
*1081 FILLER_46_175
*1082 FILLER_46_179
*1083 FILLER_46_2
*1084 FILLER_46_243
*1085 FILLER_46_247
*1086 FILLER_46_250
*1087 FILLER_46_314
*1088 FILLER_46_318
*1089 FILLER_46_321
*1090 FILLER_46_34
*1091 FILLER_46_37
*1092 FILLER_46_385
*1093 FILLER_46_389
*1094 FILLER_46_392
*1095 FILLER_46_408
*1096 FILLER_46_416
*1097 FILLER_47_137
*1098 FILLER_47_141
*1099 FILLER_47_144
*1100 FILLER_47_148
*1101 FILLER_47_150
*1102 FILLER_47_159
*1103 FILLER_47_161
*1104 FILLER_47_170
*1105 FILLER_47_174
*1106 FILLER_47_178
*1107 FILLER_47_2
*1108 FILLER_47_210
*1109 FILLER_47_212
*1110 FILLER_47_215
*1111 FILLER_47_279
*1112 FILLER_47_283
*1113 FILLER_47_286
*1114 FILLER_47_350
*1115 FILLER_47_354
*1116 FILLER_47_357
*1117 FILLER_47_389
*1118 FILLER_47_405
*1119 FILLER_47_413
*1120 FILLER_47_419
*1121 FILLER_47_66
*1122 FILLER_47_70
*1123 FILLER_47_73
*1124 FILLER_48_101
*1125 FILLER_48_105
*1126 FILLER_48_108
*1127 FILLER_48_124
*1128 FILLER_48_128
*1129 FILLER_48_132
*1130 FILLER_48_142
*1131 FILLER_48_173
*1132 FILLER_48_179
*1133 FILLER_48_2
*1134 FILLER_48_243
*1135 FILLER_48_247
*1136 FILLER_48_250
*1137 FILLER_48_314
*1138 FILLER_48_318
*1139 FILLER_48_321
*1140 FILLER_48_34
*1141 FILLER_48_37
*1142 FILLER_48_385
*1143 FILLER_48_389
*1144 FILLER_48_392
*1145 FILLER_48_408
*1146 FILLER_48_416
*1147 FILLER_49_105
*1148 FILLER_49_121
*1149 FILLER_49_129
*1150 FILLER_49_133
*1151 FILLER_49_141
*1152 FILLER_49_144
*1153 FILLER_49_174
*1154 FILLER_49_182
*1155 FILLER_49_190
*1156 FILLER_49_2
*1157 FILLER_49_206
*1158 FILLER_49_210
*1159 FILLER_49_212
*1160 FILLER_49_215
*1161 FILLER_49_279
*1162 FILLER_49_283
*1163 FILLER_49_286
*1164 FILLER_49_350
*1165 FILLER_49_354
*1166 FILLER_49_357
*1167 FILLER_49_389
*1168 FILLER_49_405
*1169 FILLER_49_413
*1170 FILLER_49_417
*1171 FILLER_49_419
*1172 FILLER_49_66
*1173 FILLER_49_70
*1174 FILLER_49_73
*1175 FILLER_4_101
*1176 FILLER_4_105
*1177 FILLER_4_108
*1178 FILLER_4_172
*1179 FILLER_4_176
*1180 FILLER_4_179
*1181 FILLER_4_2
*1182 FILLER_4_243
*1183 FILLER_4_247
*1184 FILLER_4_250
*1185 FILLER_4_314
*1186 FILLER_4_318
*1187 FILLER_4_321
*1188 FILLER_4_34
*1189 FILLER_4_37
*1190 FILLER_4_385
*1191 FILLER_4_389
*1192 FILLER_4_392
*1193 FILLER_4_408
*1194 FILLER_4_412
*1195 FILLER_4_414
*1196 FILLER_4_419
*1197 FILLER_50_101
*1198 FILLER_50_105
*1199 FILLER_50_108
*1200 FILLER_50_116
*1201 FILLER_50_120
*1202 FILLER_50_123
*1203 FILLER_50_131
*1204 FILLER_50_141
*1205 FILLER_50_172
*1206 FILLER_50_176
*1207 FILLER_50_179
*1208 FILLER_50_188
*1209 FILLER_50_196
*1210 FILLER_50_2
*1211 FILLER_50_200
*1212 FILLER_50_23
*1213 FILLER_50_232
*1214 FILLER_50_250
*1215 FILLER_50_31
*1216 FILLER_50_314
*1217 FILLER_50_318
*1218 FILLER_50_321
*1219 FILLER_50_37
*1220 FILLER_50_385
*1221 FILLER_50_389
*1222 FILLER_50_392
*1223 FILLER_50_408
*1224 FILLER_50_416
*1225 FILLER_50_7
*1226 FILLER_51_105
*1227 FILLER_51_121
*1228 FILLER_51_131
*1229 FILLER_51_141
*1230 FILLER_51_144
*1231 FILLER_51_147
*1232 FILLER_51_162
*1233 FILLER_51_193
*1234 FILLER_51_2
*1235 FILLER_51_209
*1236 FILLER_51_215
*1237 FILLER_51_279
*1238 FILLER_51_283
*1239 FILLER_51_286
*1240 FILLER_51_350
*1241 FILLER_51_354
*1242 FILLER_51_357
*1243 FILLER_51_389
*1244 FILLER_51_405
*1245 FILLER_51_411
*1246 FILLER_51_419
*1247 FILLER_51_5
*1248 FILLER_51_69
*1249 FILLER_51_73
*1250 FILLER_52_101
*1251 FILLER_52_105
*1252 FILLER_52_108
*1253 FILLER_52_124
*1254 FILLER_52_132
*1255 FILLER_52_136
*1256 FILLER_52_139
*1257 FILLER_52_145
*1258 FILLER_52_17
*1259 FILLER_52_176
*1260 FILLER_52_179
*1261 FILLER_52_2
*1262 FILLER_52_209
*1263 FILLER_52_21
*1264 FILLER_52_241
*1265 FILLER_52_245
*1266 FILLER_52_247
*1267 FILLER_52_250
*1268 FILLER_52_29
*1269 FILLER_52_314
*1270 FILLER_52_318
*1271 FILLER_52_321
*1272 FILLER_52_33
*1273 FILLER_52_37
*1274 FILLER_52_385
*1275 FILLER_52_389
*1276 FILLER_52_392
*1277 FILLER_52_408
*1278 FILLER_52_416
*1279 FILLER_53_13
*1280 FILLER_53_137
*1281 FILLER_53_141
*1282 FILLER_53_144
*1283 FILLER_53_148
*1284 FILLER_53_153
*1285 FILLER_53_161
*1286 FILLER_53_19
*1287 FILLER_53_192
*1288 FILLER_53_2
*1289 FILLER_53_208
*1290 FILLER_53_212
*1291 FILLER_53_215
*1292 FILLER_53_279
*1293 FILLER_53_283
*1294 FILLER_53_286
*1295 FILLER_53_294
*1296 FILLER_53_300
*1297 FILLER_53_332
*1298 FILLER_53_348
*1299 FILLER_53_352
*1300 FILLER_53_354
*1301 FILLER_53_357
*1302 FILLER_53_389
*1303 FILLER_53_405
*1304 FILLER_53_413
*1305 FILLER_53_417
*1306 FILLER_53_419
*1307 FILLER_53_51
*1308 FILLER_53_67
*1309 FILLER_53_7
*1310 FILLER_53_73
*1311 FILLER_54_107
*1312 FILLER_54_112
*1313 FILLER_54_128
*1314 FILLER_54_132
*1315 FILLER_54_134
*1316 FILLER_54_139
*1317 FILLER_54_142
*1318 FILLER_54_15
*1319 FILLER_54_173
*1320 FILLER_54_177
*1321 FILLER_54_19
*1322 FILLER_54_192
*1323 FILLER_54_198
*1324 FILLER_54_2
*1325 FILLER_54_206
*1326 FILLER_54_212
*1327 FILLER_54_228
*1328 FILLER_54_233
*1329 FILLER_54_241
*1330 FILLER_54_247
*1331 FILLER_54_255
*1332 FILLER_54_259
*1333 FILLER_54_263
*1334 FILLER_54_271
*1335 FILLER_54_275
*1336 FILLER_54_279
*1337 FILLER_54_282
*1338 FILLER_54_297
*1339 FILLER_54_299
*1340 FILLER_54_314
*1341 FILLER_54_317
*1342 FILLER_54_329
*1343 FILLER_54_337
*1344 FILLER_54_34
*1345 FILLER_54_341
*1346 FILLER_54_347
*1347 FILLER_54_349
*1348 FILLER_54_352
*1349 FILLER_54_360
*1350 FILLER_54_364
*1351 FILLER_54_368
*1352 FILLER_54_37
*1353 FILLER_54_384
*1354 FILLER_54_387
*1355 FILLER_54_40
*1356 FILLER_54_403
*1357 FILLER_54_411
*1358 FILLER_54_419
*1359 FILLER_54_48
*1360 FILLER_54_52
*1361 FILLER_54_54
*1362 FILLER_54_59
*1363 FILLER_54_67
*1364 FILLER_54_69
*1365 FILLER_54_72
*1366 FILLER_54_77
*1367 FILLER_54_85
*1368 FILLER_54_89
*1369 FILLER_54_9
*1370 FILLER_54_97
*1371 FILLER_5_137
*1372 FILLER_5_141
*1373 FILLER_5_144
*1374 FILLER_5_2
*1375 FILLER_5_208
*1376 FILLER_5_212
*1377 FILLER_5_215
*1378 FILLER_5_279
*1379 FILLER_5_283
*1380 FILLER_5_286
*1381 FILLER_5_350
*1382 FILLER_5_354
*1383 FILLER_5_357
*1384 FILLER_5_389
*1385 FILLER_5_405
*1386 FILLER_5_413
*1387 FILLER_5_417
*1388 FILLER_5_419
*1389 FILLER_5_7
*1390 FILLER_5_73
*1391 FILLER_6_101
*1392 FILLER_6_105
*1393 FILLER_6_108
*1394 FILLER_6_172
*1395 FILLER_6_176
*1396 FILLER_6_179
*1397 FILLER_6_2
*1398 FILLER_6_243
*1399 FILLER_6_247
*1400 FILLER_6_250
*1401 FILLER_6_314
*1402 FILLER_6_318
*1403 FILLER_6_321
*1404 FILLER_6_34
*1405 FILLER_6_37
*1406 FILLER_6_385
*1407 FILLER_6_389
*1408 FILLER_6_392
*1409 FILLER_6_408
*1410 FILLER_6_412
*1411 FILLER_6_414
*1412 FILLER_6_419
*1413 FILLER_7_137
*1414 FILLER_7_141
*1415 FILLER_7_144
*1416 FILLER_7_2
*1417 FILLER_7_208
*1418 FILLER_7_212
*1419 FILLER_7_215
*1420 FILLER_7_279
*1421 FILLER_7_283
*1422 FILLER_7_286
*1423 FILLER_7_350
*1424 FILLER_7_354
*1425 FILLER_7_357
*1426 FILLER_7_389
*1427 FILLER_7_405
*1428 FILLER_7_413
*1429 FILLER_7_417
*1430 FILLER_7_419
*1431 FILLER_7_7
*1432 FILLER_7_73
*1433 FILLER_8_101
*1434 FILLER_8_105
*1435 FILLER_8_108
*1436 FILLER_8_172
*1437 FILLER_8_176
*1438 FILLER_8_179
*1439 FILLER_8_2
*1440 FILLER_8_243
*1441 FILLER_8_247
*1442 FILLER_8_250
*1443 FILLER_8_314
*1444 FILLER_8_318
*1445 FILLER_8_321
*1446 FILLER_8_34
*1447 FILLER_8_37
*1448 FILLER_8_385
*1449 FILLER_8_389
*1450 FILLER_8_392
*1451 FILLER_8_408
*1452 FILLER_8_412
*1453 FILLER_8_414
*1454 FILLER_8_419
*1455 FILLER_9_137
*1456 FILLER_9_141
*1457 FILLER_9_144
*1458 FILLER_9_2
*1459 FILLER_9_208
*1460 FILLER_9_212
*1461 FILLER_9_215
*1462 FILLER_9_279
*1463 FILLER_9_283
*1464 FILLER_9_286
*1465 FILLER_9_350
*1466 FILLER_9_354
*1467 FILLER_9_357
*1468 FILLER_9_389
*1469 FILLER_9_405
*1470 FILLER_9_413
*1471 FILLER_9_417
*1472 FILLER_9_419
*1473 FILLER_9_7
*1474 FILLER_9_73
*1475 PHY_0
*1476 PHY_1
*1477 PHY_10
*1478 PHY_100
*1479 PHY_101
*1480 PHY_102
*1481 PHY_103
*1482 PHY_104
*1483 PHY_105
*1484 PHY_106
*1485 PHY_107
*1486 PHY_108
*1487 PHY_109
*1488 PHY_11
*1489 PHY_12
*1490 PHY_13
*1491 PHY_14
*1492 PHY_15
*1493 PHY_16
*1494 PHY_17
*1495 PHY_18
*1496 PHY_19
*1497 PHY_2
*1498 PHY_20
*1499 PHY_21
*1500 PHY_22
*1501 PHY_23
*1502 PHY_24
*1503 PHY_25
*1504 PHY_26
*1505 PHY_27
*1506 PHY_28
*1507 PHY_29
*1508 PHY_3
*1509 PHY_30
*1510 PHY_31
*1511 PHY_32
*1512 PHY_33
*1513 PHY_34
*1514 PHY_35
*1515 PHY_36
*1516 PHY_37
*1517 PHY_38
*1518 PHY_39
*1519 PHY_4
*1520 PHY_40
*1521 PHY_41
*1522 PHY_42
*1523 PHY_43
*1524 PHY_44
*1525 PHY_45
*1526 PHY_46
*1527 PHY_47
*1528 PHY_48
*1529 PHY_49
*1530 PHY_5
*1531 PHY_50
*1532 PHY_51
*1533 PHY_52
*1534 PHY_53
*1535 PHY_54
*1536 PHY_55
*1537 PHY_56
*1538 PHY_57
*1539 PHY_58
*1540 PHY_59
*1541 PHY_6
*1542 PHY_60
*1543 PHY_61
*1544 PHY_62
*1545 PHY_63
*1546 PHY_64
*1547 PHY_65
*1548 PHY_66
*1549 PHY_67
*1550 PHY_68
*1551 PHY_69
*1552 PHY_7
*1553 PHY_70
*1554 PHY_71
*1555 PHY_72
*1556 PHY_73
*1557 PHY_74
*1558 PHY_75
*1559 PHY_76
*1560 PHY_77
*1561 PHY_78
*1562 PHY_79
*1563 PHY_8
*1564 PHY_80
*1565 PHY_81
*1566 PHY_82
*1567 PHY_83
*1568 PHY_84
*1569 PHY_85
*1570 PHY_86
*1571 PHY_87
*1572 PHY_88
*1573 PHY_89
*1574 PHY_9
*1575 PHY_90
*1576 PHY_91
*1577 PHY_92
*1578 PHY_93
*1579 PHY_94
*1580 PHY_95
*1581 PHY_96
*1582 PHY_97
*1583 PHY_98
*1584 PHY_99
*1585 TAP_110
*1586 TAP_111
*1587 TAP_112
*1588 TAP_113
*1589 TAP_114
*1590 TAP_115
*1591 TAP_116
*1592 TAP_117
*1593 TAP_118
*1594 TAP_119
*1595 TAP_120
*1596 TAP_121
*1597 TAP_122
*1598 TAP_123
*1599 TAP_124
*1600 TAP_125
*1601 TAP_126
*1602 TAP_127
*1603 TAP_128
*1604 TAP_129
*1605 TAP_130
*1606 TAP_131
*1607 TAP_132
*1608 TAP_133
*1609 TAP_134
*1610 TAP_135
*1611 TAP_136
*1612 TAP_137
*1613 TAP_138
*1614 TAP_139
*1615 TAP_140
*1616 TAP_141
*1617 TAP_142
*1618 TAP_143
*1619 TAP_144
*1620 TAP_145
*1621 TAP_146
*1622 TAP_147
*1623 TAP_148
*1624 TAP_149
*1625 TAP_150
*1626 TAP_151
*1627 TAP_152
*1628 TAP_153
*1629 TAP_154
*1630 TAP_155
*1631 TAP_156
*1632 TAP_157
*1633 TAP_158
*1634 TAP_159
*1635 TAP_160
*1636 TAP_161
*1637 TAP_162
*1638 TAP_163
*1639 TAP_164
*1640 TAP_165
*1641 TAP_166
*1642 TAP_167
*1643 TAP_168
*1644 TAP_169
*1645 TAP_170
*1646 TAP_171
*1647 TAP_172
*1648 TAP_173
*1649 TAP_174
*1650 TAP_175
*1651 TAP_176
*1652 TAP_177
*1653 TAP_178
*1654 TAP_179
*1655 TAP_180
*1656 TAP_181
*1657 TAP_182
*1658 TAP_183
*1659 TAP_184
*1660 TAP_185
*1661 TAP_186
*1662 TAP_187
*1663 TAP_188
*1664 TAP_189
*1665 TAP_190
*1666 TAP_191
*1667 TAP_192
*1668 TAP_193
*1669 TAP_194
*1670 TAP_195
*1671 TAP_196
*1672 TAP_197
*1673 TAP_198
*1674 TAP_199
*1675 TAP_200
*1676 TAP_201
*1677 TAP_202